128
BOX:  15.628 
 S                   12.245  16.680   5.984  
 S                    9.841  13.149   2.479  
 S                   13.487  11.289  11.155  
 S                    8.966  11.363   2.413  
 S                   14.344  15.542  11.284  
 S                    6.983  11.638   2.850  
 S                   11.973   9.748  12.239  
 S                    9.493  11.406   7.384  
 S                    5.090   5.715   8.226  
 S                    3.204   8.669   7.640  
 S                    7.884   8.436   3.536  
 S                    1.965   9.619   6.392  
 S                    3.619   7.853   3.929  
 S                    3.761   8.641   1.949  
 S                    3.598   8.964  -3.145  
 S                   10.719   7.143   0.152  
 S                   18.084   7.589  11.670  
 S                   11.293   7.456  10.225  
 S                   13.937  12.630  12.567  
 S                   16.648  10.833   7.596  
 S                   16.984  12.537  11.687  
 S                   10.904   5.739   9.405  
 S                   13.164  12.355   8.445  
 S                   12.679   8.854   1.620  
 S                   -1.320  11.634   6.382  
 S                    3.923  13.697   4.481  
 S                   -0.417  14.316   9.865  
 S                    3.622  13.846   2.345  
 S                    6.090  15.734  10.302  
 S                    4.612  10.238   8.308  
 S                    6.232  10.501  15.112  
 S                   -0.487  13.169   5.603  
 S                   18.265  10.603   2.144  
 S                   16.288  17.783   6.899  
 S                   16.949   6.417  -0.979  
 S                   14.180  13.256   0.075  
 S                   10.878   2.644   0.824  
 S                    1.818  17.244  -2.850  
 S                   14.310   5.600   1.212  
 S                   11.135   5.547   5.049  
 S                   14.438   7.672   1.275  
 S                   17.726   6.583   3.864  
 S                   12.869   9.392   3.543  
 S                   18.385  -0.159   7.464  
 S                   13.860  -1.463   8.157  
 S                   15.118   6.820   9.594  
 S                   13.524  -1.014   3.172  
 S                   14.349   2.329  11.050  
 S                    3.067   4.507  18.839  
 S                    7.368   1.470  13.066  
 S                    5.035   3.525  21.362  
 S                    3.016   1.407  11.116  
 S                    7.897   7.169  17.621  
 S                    2.662   4.270  10.418  
 S                    6.134   6.658  12.895  
 S                    7.881   0.760  10.901  
 S                    5.144  17.127   9.180  
 S                   11.005  15.502  10.363  
 S                    5.514  16.725  13.458  
 S                   14.054  18.779  12.848  
 S                    7.658  11.684  14.230  
 S                   13.152   5.433  12.948  
 S                    8.558  15.896  14.482  
 S                   11.595   6.285  12.267  
 S                    7.432   2.569  18.425  
 S                   10.385  -0.795  12.064  
 S                    6.807   2.763   6.177  
 S                   10.832  -4.761   8.756  
 S                   11.015   2.246  10.799  
 S                   15.254  -4.545  13.535  
 S                   10.897   0.930   7.601  
 S                    7.047  -0.872  15.350  
 S                    7.402   7.548  11.855  
 S                   11.217   5.848  17.451  
 S                    6.068   4.169  17.242  
 S                    7.158  11.858  12.137  
 S                   13.974   5.794   8.483  
 S                    7.132   6.071   8.720  
 S                   12.892   4.384   9.395  
 S                   12.488   6.776   5.886  
 S                    4.519   0.045   1.949  
 S                    2.498   3.845   1.555  
 S                   10.625  -4.327  -3.097  
 S                    6.422  -0.315   1.509  
 S                   13.904  -2.697   2.242  
 S                   12.406   1.791   1.938  
 S                   12.301  -2.054  -0.667  
 S                   18.773  -0.557  -4.751  
 S                    9.835   4.375   1.820  
 S                   10.617  -2.345   6.217  
 S                   12.331   2.672   5.009  
 S                    4.896   5.696   6.293  
 S                    6.269   5.838   2.741  
 S                    9.450   2.165   7.942  
 S                    7.901   3.502   4.396  
 S                    4.693  -0.084   7.315  
 S                    4.753   7.892  13.952  
 S                   -1.332   2.819  17.541  
 S                    3.449   4.049  15.189  
 S                    1.140   4.679   9.228  
 S                    4.612  11.749   4.864  
 S                   -4.362   2.555  12.657  
 S                    1.633  12.643   7.011  
 S                    3.364  12.382  10.890  
 S                    0.815  16.181  15.468  
 S                    2.866  11.946  14.718  
 S                    1.651  20.042  14.213  
 S                    5.557  13.070  11.459  
 S                    1.009  10.579  12.031  
 S                    0.701   7.167  12.797  
 S                    1.485  10.838  16.224  
 S                   -6.152   5.922  14.523  
 S                    9.563   6.359   6.054  
 S                    7.275   7.957   8.110  
 S                    9.383   8.183   5.055  
 S                    8.109  12.069   8.845  
 S                   10.954  12.034  -0.989  
 S                    6.290  12.597   8.022  
 S                    4.701  12.025   0.152  
 S                    5.803   9.083   9.315  
 S                   -4.371  13.285   4.241  
 S                    1.270  15.545  -1.977  
 S                    0.763  19.597   6.227  
 S                   -1.567  20.177   3.126  
 S                   -2.177  23.046   4.222  
 S                    2.017  20.803   7.278  
 S                    2.221  16.687   5.941  
 S                    6.679  11.923   4.863  
